<?xml version='1.0' encoding='utf-8'?>
<!DOCTYPE population SYSTEM "http://matsim.org/files/dtd/population_v6.dtd">
<population><!--Created 2023-03-06 13:22:07.328462-->
<person id="12052000_12052000_100">
  <attributes>
    <attribute class="java.lang.String" name="hid">12052000_12052000_100</attribute>
  </attributes>
  <plan selected="yes" score="112.83915061460992">
    <activity type="home" start_time="00:00:00" end_time="07:48:38" link="1655" x="457685.0" y="5740004.0"/>
    <leg mode="drt" trav_time="00:00:00"/>
    <activity type="work" start_time="07:48:38" end_time="15:31:17" link="9690" x="456223.0" y="5732282.0"/>
    <leg mode="drt" trav_time="00:00:00"/>
    <activity type="home" start_time="15:31:17" end_time="24:00:00" link="1655" x="457685.0" y="5740004.0"/>
  </plan>
</person>
<person id="12052000_12052000_10006">
  <attributes>
    <attribute class="java.lang.String" name="hid">12052000_12052000_10006</attribute>
  </attributes>
  <plan selected="yes" score="117.53754967340346">
    <activity type="home" start_time="00:00:00" end_time="07:22:07" link="7970" x="454255.0" y="5736819.0"/>
    <leg mode="drt" trav_time="00:00:00"/>
    <activity type="work" start_time="07:22:07" end_time="15:21:05" link="780" x="456841.0" y="5734761.0"/>
    <leg mode="drt" trav_time="00:00:00"/>
    <activity type="home" start_time="15:21:05" end_time="24:00:00" link="7970" x="454255.0" y="5736819.0"/>
  </plan>
</person>
<person id="12052000_12052000_1002">
  <attributes>
    <attribute class="java.lang.String" name="hid">12052000_12052000_1002</attribute>
  </attributes>
  <plan selected="yes" score="121.0365565728833">
    <activity type="home" start_time="00:00:00" end_time="07:34:07" link="5146" x="452735.0" y="5732744.0"/>
    <leg mode="drt" trav_time="00:00:00"/>
    <activity type="work" start_time="07:34:07" end_time="16:01:04" link="10952" x="454519.0" y="5734308.0"/>
    <leg mode="drt" trav_time="00:00:00"/>
    <activity type="home" start_time="16:01:04" end_time="24:00:00" link="5146" x="452735.0" y="5732744.0"/>
  </plan>
</person>
<person id="12052000_12052000_10033">
  <attributes>
    <attribute class="java.lang.String" name="hid">12052000_12052000_10033</attribute>
  </attributes>
  <plan selected="yes" score="105.87289134587908">
    <activity type="home" start_time="00:00:00" end_time="07:33:57" link="720" x="454187.0" y="5733684.0"/>
    <leg mode="drt" trav_time="00:36:23"/>
    <activity type="work" start_time="08:10:20" end_time="08:03:39" link="8639" x="454992.0" y="5732539.0"/>
    <leg mode="drt" trav_time="00:00:00"/>
    <activity type="work" start_time="08:03:39" end_time="15:33:07" link="10261" x="455927.0" y="5727875.0"/>
    <leg mode="drt" trav_time="00:00:00"/>
    <activity type="work" start_time="15:33:07" end_time="16:02:23" link="8639" x="454992.0" y="5732539.0"/>
    <leg mode="drt" trav_time="00:00:00"/>
    <activity type="home" start_time="16:02:23" end_time="24:00:00" link="720" x="454187.0" y="5733684.0"/>
  </plan>
</person>
<person id="12052000_12052000_10047">
  <attributes>
    <attribute class="java.lang.String" name="hid">12052000_12052000_10047</attribute>
  </attributes>
  <plan selected="yes" score="111.29885831990227">
    <activity type="home" start_time="00:00:00" end_time="07:40:24" link="3125" x="451542.0" y="5734141.0"/>
    <leg mode="drt" trav_time="00:00:00"/>
    <activity type="work" start_time="07:40:24" end_time="08:13:20" link="3222" x="453568.0" y="5732150.0"/>
    <leg mode="drt" trav_time="00:00:00"/>
    <activity type="work" start_time="08:13:20" end_time="14:52:14" link="3248" x="453681.0" y="5734148.0"/>
    <leg mode="drt" trav_time="00:00:00"/>
    <activity type="work" start_time="14:52:14" end_time="15:35:25" link="3222" x="453568.0" y="5732150.0"/>
    <leg mode="drt" trav_time="00:00:00"/>
    <activity type="home" start_time="15:35:25" end_time="24:00:00" link="3125" x="451542.0" y="5734141.0"/>
  </plan>
</person>
<person id="12052000_12052000_10048">
  <attributes>
    <attribute class="java.lang.String" name="hid">12052000_12052000_10048</attribute>
  </attributes>
  <plan selected="yes" score="123.20150319361407">
    <activity type="home" start_time="00:00:00" end_time="06:58:31" link="1852" x="452751.0" y="5734662.0"/>
    <leg mode="drt" trav_time="00:00:00"/>
    <activity type="work" start_time="06:58:31" end_time="15:47:41" link="7527" x="455547.0" y="5735073.0"/>
    <leg mode="drt" trav_time="00:00:00"/>
    <activity type="home" start_time="15:47:41" end_time="24:00:00" link="1852" x="452751.0" y="5734662.0"/>
  </plan>
</person>
<person id="12052000_12052000_10073">
  <attributes>
    <attribute class="java.lang.String" name="hid">12052000_12052000_10073</attribute>
  </attributes>
  <plan selected="yes" score="126.60539868314373">
    <activity type="home" start_time="00:00:00" end_time="07:01:24" link="5305" x="455528.0" y="5734229.0"/>
    <leg mode="drt" trav_time="00:00:00"/>
    <activity type="work" start_time="07:01:24" end_time="15:36:02" link="7828" x="453563.0" y="5734598.0"/>
    <leg mode="drt" trav_time="00:00:00"/>
    <activity type="home" start_time="15:36:02" end_time="24:00:00" link="5305" x="455528.0" y="5734229.0"/>
  </plan>
</person>
<person id="12052000_12052000_10080">
  <attributes>
    <attribute class="java.lang.String" name="hid">12052000_12052000_10080</attribute>
  </attributes>
  <plan selected="yes" score="117.52260872557116">
    <activity type="home" start_time="00:00:00" end_time="08:16:27" link="1852" x="452751.0" y="5734662.0"/>
    <leg mode="drt" trav_time="00:00:00"/>
    <activity type="work" start_time="08:16:27" end_time="16:34:14" link="2274" x="455860.0" y="5730090.0"/>
    <leg mode="drt" trav_time="00:00:00"/>
    <activity type="home" start_time="16:34:14" end_time="24:00:00" link="1852" x="452751.0" y="5734662.0"/>
  </plan>
</person>
<person id="12052000_12052000_10095">
  <attributes>
    <attribute class="java.lang.String" name="hid">12052000_12052000_10095</attribute>
  </attributes>
  <plan selected="yes" score="124.27101330561544">
    <activity type="home" start_time="00:00:00" end_time="07:09:06" link="8590" x="457127.0" y="5735018.0"/>
    <leg mode="drt" trav_time="00:00:00"/>
    <activity type="work" start_time="07:09:06" end_time="16:07:42" link="1148" x="454877.0" y="5735087.0"/>
    <leg mode="drt" trav_time="00:00:00"/>
    <activity type="home" start_time="16:07:42" end_time="24:00:00" link="8590" x="457127.0" y="5735018.0"/>
  </plan>
</person>
<person id="12052000_12052000_10132">
  <attributes>
    <attribute class="java.lang.String" name="hid">12052000_12052000_10132</attribute>
  </attributes>
  <plan selected="yes" score="116.39416014089109">
    <activity type="home" start_time="00:00:00" end_time="07:08:45" link="5146" x="452735.0" y="5732744.0"/>
    <leg mode="drt" trav_time="00:00:00"/>
    <activity type="work" start_time="07:08:45" end_time="15:27:57" link="9487" x="457007.0" y="5732641.0"/>
    <leg mode="drt" trav_time="00:00:00"/>
    <activity type="home" start_time="15:27:57" end_time="24:00:00" link="5146" x="452735.0" y="5732744.0"/>
  </plan>
</person>
<person id="12052000_12052000_10153">
  <attributes>
    <attribute class="java.lang.String" name="hid">12052000_12052000_10153</attribute>
  </attributes>
  <plan selected="yes" score="124.0453379208622">
    <activity type="home" start_time="00:00:00" end_time="06:19:14" link="6884" x="454357.0" y="5732882.0"/>
    <leg mode="drt" trav_time="00:00:00"/>
    <activity type="work" start_time="06:19:14" end_time="15:37:28" link="6998" x="452603.0" y="5733230.0"/>
    <leg mode="drt" trav_time="00:46:29"/>
    <activity type="home" start_time="16:23:57" end_time="24:00:00" link="6884" x="454357.0" y="5732882.0"/>
  </plan>
</person>
<person id="12052000_12052000_10170">
  <attributes>
    <attribute class="java.lang.String" name="hid">12052000_12052000_10170</attribute>
  </attributes>
  <plan selected="yes" score="118.26723296715681">
    <activity type="home" start_time="00:00:00" end_time="07:42:54" link="2985" x="456805.0" y="5732583.0"/>
    <leg mode="drt" trav_time="00:00:00"/>
    <activity type="work" start_time="07:42:54" end_time="15:17:16" link="3777" x="454567.0" y="5735232.0"/>
    <leg mode="drt" trav_time="00:00:00"/>
    <activity type="home" start_time="15:17:16" end_time="24:00:00" link="2985" x="456805.0" y="5732583.0"/>
  </plan>
</person>
<person id="12052000_12052000_1019">
  <attributes>
    <attribute class="java.lang.String" name="hid">12052000_12052000_1019</attribute>
  </attributes>
  <plan selected="yes" score="126.1372947240995">
    <activity type="home" start_time="00:00:00" end_time="07:21:55" link="3731" x="454004.0" y="5733684.0"/>
    <leg mode="drt" trav_time="00:00:00"/>
    <activity type="work" start_time="07:21:55" end_time="15:44:16" link="1852" x="452751.0" y="5734662.0"/>
    <leg mode="drt" trav_time="00:00:00"/>
    <activity type="home" start_time="15:44:16" end_time="24:00:00" link="3731" x="454004.0" y="5733684.0"/>
  </plan>
</person>
<person id="12052000_12052000_10197">
  <attributes>
    <attribute class="java.lang.String" name="hid">12052000_12052000_10197</attribute>
  </attributes>
  <plan selected="yes" score="123.63903809838507">
    <activity type="home" start_time="00:00:00" end_time="07:18:28" link="10922" x="456291.0" y="5731526.0"/>
    <leg mode="drt" trav_time="00:39:20"/>
    <activity type="work" start_time="07:57:48" end_time="15:53:10" link="7177" x="457013.0" y="5730196.0"/>
    <leg mode="drt" trav_time="00:39:20"/>
    <activity type="home" start_time="16:32:30" end_time="24:00:00" link="10922" x="456291.0" y="5731526.0"/>
  </plan>
</person>
<person id="12052000_12052000_10218">
  <attributes>
    <attribute class="java.lang.String" name="hid">12052000_12052000_10218</attribute>
  </attributes>
  <plan selected="yes" score="117.08466648019757">
    <activity type="home" start_time="00:00:00" end_time="08:13:59" link="702" x="453853.0" y="5732587.0"/>
    <leg mode="drt" trav_time="00:00:00"/>
    <activity type="work" start_time="08:13:59" end_time="16:02:29" link="6714" x="453405.0" y="5737524.0"/>
    <leg mode="drt" trav_time="00:00:00"/>
    <activity type="home" start_time="16:02:29" end_time="24:00:00" link="702" x="453853.0" y="5732587.0"/>
  </plan>
</person>
<person id="12052000_12052000_10229">
  <attributes>
    <attribute class="java.lang.String" name="hid">12052000_12052000_10229</attribute>
  </attributes>
  <plan selected="yes" score="122.27210462887513">
    <activity type="home" start_time="00:00:00" end_time="08:38:51" link="7831" x="451485.0" y="5734592.0"/>
    <leg mode="drt" trav_time="00:00:00"/>
    <activity type="work" start_time="08:38:51" end_time="17:06:07" link="5998" x="453992.0" y="5732766.0"/>
    <leg mode="drt" trav_time="00:00:00"/>
    <activity type="home" start_time="17:06:07" end_time="24:00:00" link="7831" x="451485.0" y="5734592.0"/>
  </plan>
</person>
<person id="12052000_12052000_10241">
  <attributes>
    <attribute class="java.lang.String" name="hid">12052000_12052000_10241</attribute>
  </attributes>
  <plan selected="yes" score="121.20528389867133">
    <activity type="home" start_time="00:00:00" end_time="08:12:25" link="4497" x="453769.0" y="5733256.0"/>
    <leg mode="drt" trav_time="00:00:00"/>
    <activity type="work" start_time="08:12:25" end_time="15:53:35" link="10674" x="457400.0" y="5739448.0"/>
    <leg mode="drt" trav_time="00:00:00"/>
    <activity type="home" start_time="15:53:35" end_time="24:00:00" link="4497" x="453769.0" y="5733256.0"/>
  </plan>
</person>
<person id="12052000_12052000_10288">
  <attributes>
    <attribute class="java.lang.String" name="hid">12052000_12052000_10288</attribute>
  </attributes>
  <plan selected="yes" score="124.79311263881411">
    <activity type="home" start_time="00:00:00" end_time="06:07:29" link="6630" x="457285.0" y="5736867.0"/>
    <leg mode="drt" trav_time="00:00:00"/>
    <activity type="work" start_time="06:07:29" end_time="15:35:31" link="2514" x="454705.0" y="5734529.0"/>
    <leg mode="drt" trav_time="00:00:00"/>
    <activity type="home" start_time="15:35:31" end_time="24:00:00" link="6630" x="457285.0" y="5736867.0"/>
  </plan>
</person>
<person id="12052000_12052000_1030">
  <attributes>
    <attribute class="java.lang.String" name="hid">12052000_12052000_1030</attribute>
  </attributes>
  <plan selected="yes" score="121.83321869597249">
    <activity type="home" start_time="00:00:00" end_time="06:19:09" link="732" x="454476.0" y="5732744.0"/>
    <leg mode="drt" trav_time="00:50:33"/>
    <activity type="work" start_time="07:09:42" end_time="15:00:42" link="2312" x="452563.0" y="5733094.0"/>
    <leg mode="drt" trav_time="00:50:33"/>
    <activity type="home" start_time="15:51:15" end_time="24:00:00" link="732" x="454476.0" y="5732744.0"/>
  </plan>
</person>
<person id="12052000_12052000_10305">
  <attributes>
    <attribute class="java.lang.String" name="hid">12052000_12052000_10305</attribute>
  </attributes>
  <plan selected="yes" score="120.9540917974907">
    <activity type="home" start_time="00:00:00" end_time="07:40:30" link="7078" x="454092.0" y="5734780.0"/>
    <leg mode="drt" trav_time="00:00:00"/>
    <activity type="work" start_time="07:40:30" end_time="16:42:57" link="884" x="456642.0" y="5731890.0"/>
    <leg mode="drt" trav_time="00:00:00"/>
    <activity type="home" start_time="16:42:57" end_time="24:00:00" link="7078" x="454092.0" y="5734780.0"/>
  </plan>
</person>
<person id="12052000_12052000_10314">
  <attributes>
    <attribute class="java.lang.String" name="hid">12052000_12052000_10314</attribute>
  </attributes>
  <plan selected="yes" score="118.78279036106827">
    <activity type="home" start_time="00:00:00" end_time="08:37:33" link="2788" x="452339.0" y="5734625.0"/>
    <leg mode="drt" trav_time="00:00:00"/>
    <activity type="work" start_time="08:37:33" end_time="17:04:38" link="9914" x="453647.0" y="5729346.0"/>
    <leg mode="drt" trav_time="00:00:00"/>
    <activity type="home" start_time="17:04:38" end_time="24:00:00" link="2788" x="452339.0" y="5734625.0"/>
  </plan>
</person>
<person id="12052000_12052000_10344">
  <attributes>
    <attribute class="java.lang.String" name="hid">12052000_12052000_10344</attribute>
  </attributes>
  <plan selected="yes" score="123.50054704613895">
    <activity type="home" start_time="00:00:00" end_time="06:10:10" link="10870" x="455574.0" y="5730661.0"/>
    <leg mode="drt" trav_time="00:00:00"/>
    <activity type="work" start_time="06:10:10" end_time="15:54:42" link="1586" x="454611.0" y="5732958.0"/>
    <leg mode="drt" trav_time="00:00:00"/>
    <activity type="home" start_time="15:54:42" end_time="24:00:00" link="10870" x="455574.0" y="5730661.0"/>
  </plan>
</person>
<person id="12052000_12052000_10349">
  <attributes>
    <attribute class="java.lang.String" name="hid">12052000_12052000_10349</attribute>
  </attributes>
  <plan selected="yes" score="124.23518076723016">
    <activity type="home" start_time="00:00:00" end_time="06:22:04" link="7521" x="457625.0" y="5734873.0"/>
    <leg mode="drt" trav_time="00:00:00"/>
    <activity type="work" start_time="06:22:04" end_time="15:38:50" link="3731" x="454004.0" y="5733684.0"/>
    <leg mode="drt" trav_time="00:00:00"/>
    <activity type="home" start_time="15:38:50" end_time="24:00:00" link="7521" x="457625.0" y="5734873.0"/>
  </plan>
</person>
<person id="12052000_12052000_10350">
  <attributes>
    <attribute class="java.lang.String" name="hid">12052000_12052000_10350</attribute>
  </attributes>
  <plan selected="yes" score="125.25305881637875">
    <activity type="home" start_time="00:00:00" end_time="06:33:33" link="746" x="457355.0" y="5738447.0"/>
    <leg mode="drt" trav_time="00:00:00"/>
    <activity type="work" start_time="06:33:33" end_time="15:42:54" link="5293" x="456867.0" y="5736898.0"/>
    <leg mode="drt" trav_time="00:42:12"/>
    <activity type="home" start_time="16:25:06" end_time="24:00:00" link="746" x="457355.0" y="5738447.0"/>
  </plan>
</person>
<person id="12052000_12052000_10410">
  <attributes>
    <attribute class="java.lang.String" name="hid">12052000_12052000_10410</attribute>
  </attributes>
  <plan selected="yes" score="117.30121151025403">
    <activity type="home" start_time="00:00:00" end_time="08:31:36" link="9914" x="453647.0" y="5729346.0"/>
    <leg mode="drt" trav_time="00:00:00"/>
    <activity type="work" start_time="08:31:36" end_time="16:35:11" link="7859" x="455842.0" y="5733590.0"/>
    <leg mode="drt" trav_time="00:00:00"/>
    <activity type="home" start_time="16:35:11" end_time="24:00:00" link="9914" x="453647.0" y="5729346.0"/>
  </plan>
</person>
<person id="12052000_12052000_10430">
  <attributes>
    <attribute class="java.lang.String" name="hid">12052000_12052000_10430</attribute>
  </attributes>
  <plan selected="yes" score="118.1014256702506">
    <activity type="home" start_time="00:00:00" end_time="07:29:05" link="7045" x="459630.0" y="5734808.0"/>
    <leg mode="drt" trav_time="00:00:00"/>
    <activity type="work" start_time="07:29:05" end_time="16:08:08" link="5158" x="452319.0" y="5733043.0"/>
    <leg mode="drt" trav_time="00:00:00"/>
    <activity type="home" start_time="16:08:08" end_time="24:00:00" link="7045" x="459630.0" y="5734808.0"/>
  </plan>
</person>
<person id="12052000_12052000_10432">
  <attributes>
    <attribute class="java.lang.String" name="hid">12052000_12052000_10432</attribute>
  </attributes>
  <plan selected="yes" score="107.58724021737946">
    <activity type="home" start_time="00:00:00" end_time="07:36:01" link="3666" x="455005.0" y="5734226.0"/>
    <leg mode="drt" trav_time="00:00:00"/>
    <activity type="work" start_time="07:36:01" end_time="08:04:57" link="1756" x="455648.0" y="5734859.0"/>
    <leg mode="drt" trav_time="00:00:00"/>
    <activity type="work" start_time="08:04:57" end_time="15:56:52" link="1602" x="453144.0" y="5731833.0"/>
    <leg mode="drt" trav_time="00:00:00"/>
    <activity type="work" start_time="15:56:52" end_time="16:21:44" link="1756" x="455648.0" y="5734859.0"/>
    <leg mode="drt" trav_time="00:23:26"/>
    <activity type="home" start_time="16:45:10" end_time="24:00:00" link="3666" x="455005.0" y="5734226.0"/>
  </plan>
</person>
<person id="12052000_12052000_10477">
  <attributes>
    <attribute class="java.lang.String" name="hid">12052000_12052000_10477</attribute>
  </attributes>
  <plan selected="yes" score="119.80496210685472">
    <activity type="home" start_time="00:00:00" end_time="06:23:20" link="1655" x="457532.0" y="5740177.0"/>
    <leg mode="drt" trav_time="00:00:00"/>
    <activity type="work" start_time="06:23:20" end_time="14:53:28" link="7545" x="457430.0" y="5736546.0"/>
    <leg mode="drt" trav_time="00:00:00"/>
    <activity type="home" start_time="14:53:28" end_time="24:00:00" link="1655" x="457532.0" y="5740177.0"/>
  </plan>
</person>
<person id="12052000_12052000_10531">
  <attributes>
    <attribute class="java.lang.String" name="hid">12052000_12052000_10531</attribute>
  </attributes>
  <plan selected="yes" score="115.92602305006642">
    <activity type="home" start_time="00:00:00" end_time="07:04:48" link="10952" x="454519.0" y="5734308.0"/>
    <leg mode="drt" trav_time="00:00:00"/>
    <activity type="work" start_time="07:04:48" end_time="07:36:17" link="1756" x="455648.0" y="5734859.0"/>
    <leg mode="drt" trav_time="00:00:00"/>
    <activity type="work" start_time="07:36:17" end_time="15:43:42" link="9387" x="453347.0" y="5737100.0"/>
    <leg mode="drt" trav_time="00:00:00"/>
    <activity type="work" start_time="15:43:42" end_time="15:39:40" link="1756" x="455648.0" y="5734859.0"/>
    <leg mode="drt" trav_time="00:00:00"/>
    <activity type="home" start_time="15:39:40" end_time="24:00:00" link="10952" x="454519.0" y="5734308.0"/>
  </plan>
</person>
<person id="12052000_12052000_10542">
  <attributes>
    <attribute class="java.lang.String" name="hid">12052000_12052000_10542</attribute>
  </attributes>
  <plan selected="yes" score="111.48648835767729">
    <activity type="home" start_time="00:00:00" end_time="07:39:54" link="4762" x="458213.0" y="5735045.0"/>
    <leg mode="drt" trav_time="00:00:00"/>
    <activity type="work" start_time="07:39:54" end_time="08:41:18" link="1756" x="455648.0" y="5734859.0"/>
    <leg mode="drt" trav_time="00:00:00"/>
    <activity type="work" start_time="08:41:18" end_time="16:05:19" link="9487" x="457007.0" y="5732641.0"/>
    <leg mode="drt" trav_time="00:00:00"/>
    <activity type="work" start_time="16:05:19" end_time="16:19:56" link="1756" x="455648.0" y="5734859.0"/>
    <leg mode="drt" trav_time="00:00:00"/>
    <activity type="home" start_time="16:19:56" end_time="24:00:00" link="4762" x="458213.0" y="5735045.0"/>
  </plan>
</person>
<person id="12052000_12052000_10543">
  <attributes>
    <attribute class="java.lang.String" name="hid">12052000_12052000_10543</attribute>
  </attributes>
  <plan selected="yes" score="119.35732359540935">
    <activity type="home" start_time="00:00:00" end_time="07:28:49" link="6889" x="454225.0" y="5732629.0"/>
    <leg mode="drt" trav_time="01:01:31"/>
    <activity type="work" start_time="08:30:20" end_time="16:02:54" link="4228" x="456457.0" y="5731842.0"/>
    <leg mode="drt" trav_time="01:01:31"/>
    <activity type="home" start_time="17:04:25" end_time="24:00:00" link="6889" x="454225.0" y="5732629.0"/>
  </plan>
</person>
<person id="12052000_12052000_10546">
  <attributes>
    <attribute class="java.lang.String" name="hid">12052000_12052000_10546</attribute>
  </attributes>
  <plan selected="yes" score="120.22466701563616">
    <activity type="home" start_time="00:00:00" end_time="08:33:27" link="3837" x="451314.0" y="5733766.0"/>
    <leg mode="drt" trav_time="00:49:56"/>
    <activity type="work" start_time="09:23:23" end_time="16:36:08" link="2318" x="453092.0" y="5733039.0"/>
    <leg mode="drt" trav_time="00:00:00"/>
    <activity type="home" start_time="16:36:08" end_time="24:00:00" link="3837" x="451314.0" y="5733766.0"/>
  </plan>
</person>
<person id="12052000_12052000_10572">
  <attributes>
    <attribute class="java.lang.String" name="hid">12052000_12052000_10572</attribute>
  </attributes>
  <plan selected="yes" score="123.65182138611205">
    <activity type="home" start_time="00:00:00" end_time="07:42:47" link="10126" x="454278.0" y="5737782.0"/>
    <leg mode="drt" trav_time="00:00:00"/>
    <activity type="work" start_time="07:42:47" end_time="15:55:57" link="7828" x="453563.0" y="5734598.0"/>
    <leg mode="drt" trav_time="00:00:00"/>
    <activity type="home" start_time="15:55:57" end_time="24:00:00" link="10126" x="454278.0" y="5737782.0"/>
  </plan>
</person>
<person id="12052000_12052000_10593">
  <attributes>
    <attribute class="java.lang.String" name="hid">12052000_12052000_10593</attribute>
  </attributes>
  <plan selected="yes" score="123.67881036850757">
    <activity type="home" start_time="00:00:00" end_time="06:45:49" link="6692" x="456207.0" y="5728282.0"/>
    <leg mode="drt" trav_time="00:00:00"/>
    <activity type="work" start_time="06:45:49" end_time="15:33:20" link="5825" x="455699.0" y="5730316.0"/>
    <leg mode="drt" trav_time="00:00:00"/>
    <activity type="home" start_time="15:33:20" end_time="24:00:00" link="6692" x="456207.0" y="5728282.0"/>
  </plan>
</person>
<person id="12052000_12052000_1060">
  <attributes>
    <attribute class="java.lang.String" name="hid">12052000_12052000_1060</attribute>
  </attributes>
  <plan selected="yes" score="113.8189402590951">
    <activity type="home" start_time="00:00:00" end_time="07:28:16" link="1828" x="454390.0" y="5730184.0"/>
    <leg mode="drt" trav_time="00:15:51"/>
    <activity type="work" start_time="07:44:07" end_time="07:52:52" link="5777" x="453868.0" y="5730500.0"/>
    <leg mode="drt" trav_time="00:00:00"/>
    <activity type="work" start_time="07:52:52" end_time="15:24:28" link="7988" x="454073.0" y="5738064.0"/>
    <leg mode="drt" trav_time="00:00:00"/>
    <activity type="work" start_time="15:24:28" end_time="15:50:29" link="5777" x="453868.0" y="5730500.0"/>
    <leg mode="drt" trav_time="00:15:51"/>
    <activity type="home" start_time="16:06:20" end_time="24:00:00" link="1828" x="454390.0" y="5730184.0"/>
  </plan>
</person>
<person id="12052000_12052000_10603">
  <attributes>
    <attribute class="java.lang.String" name="hid">12052000_12052000_10603</attribute>
  </attributes>
  <plan selected="yes" score="124.2750450535772">
    <activity type="home" start_time="00:00:00" end_time="08:24:16" link="3248" x="453681.0" y="5734148.0"/>
    <leg mode="drt" trav_time="00:00:00"/>
    <activity type="work" start_time="08:24:16" end_time="16:03:54" link="1497" x="454869.0" y="5734466.0"/>
    <leg mode="drt" trav_time="00:00:00"/>
    <activity type="home" start_time="16:03:54" end_time="24:00:00" link="3248" x="453681.0" y="5734148.0"/>
  </plan>
</person>
<person id="12052000_12052000_10606">
  <attributes>
    <attribute class="java.lang.String" name="hid">12052000_12052000_10606</attribute>
  </attributes>
  <plan selected="yes" score="121.31882674283182">
    <activity type="home" start_time="00:00:00" end_time="07:40:25" link="5303" x="455609.0" y="5734484.0"/>
    <leg mode="drt" trav_time="00:00:00"/>
    <activity type="work" start_time="07:40:25" end_time="15:29:24" link="5624" x="457615.0" y="5740408.0"/>
    <leg mode="drt" trav_time="00:00:00"/>
    <activity type="home" start_time="15:29:24" end_time="24:00:00" link="5303" x="455609.0" y="5734484.0"/>
  </plan>
</person>
<person id="12052000_12052000_10631">
  <attributes>
    <attribute class="java.lang.String" name="hid">12052000_12052000_10631</attribute>
  </attributes>
  <plan selected="yes" score="121.10731577548924">
    <activity type="home" start_time="00:00:00" end_time="07:05:07" link="728" x="454229.0" y="5733096.0"/>
    <leg mode="drt" trav_time="00:00:00"/>
    <activity type="work" start_time="07:05:07" end_time="14:36:05" link="6998" x="452603.0" y="5733230.0"/>
    <leg mode="drt" trav_time="00:00:00"/>
    <activity type="home" start_time="14:36:05" end_time="24:00:00" link="728" x="454229.0" y="5733096.0"/>
  </plan>
</person>
<person id="12052000_12052000_10646">
  <attributes>
    <attribute class="java.lang.String" name="hid">12052000_12052000_10646</attribute>
  </attributes>
  <plan selected="yes" score="109.19489060190914">
    <activity type="home" start_time="00:00:00" end_time="06:37:20" link="10890" x="456390.0" y="5730196.0"/>
    <leg mode="drt" trav_time="01:06:02"/>
    <activity type="work" start_time="07:43:22" end_time="06:53:34" link="5777" x="453868.0" y="5730500.0"/>
    <leg mode="drt" trav_time="00:00:00"/>
    <activity type="work" start_time="06:53:34" end_time="14:34:47" link="4446" x="453722.0" y="5732948.0"/>
    <leg mode="drt" trav_time="00:00:00"/>
    <activity type="work" start_time="14:34:47" end_time="15:25:56" link="5777" x="453868.0" y="5730500.0"/>
    <leg mode="drt" trav_time="00:00:00"/>
    <activity type="home" start_time="15:25:56" end_time="24:00:00" link="10890" x="456390.0" y="5730196.0"/>
  </plan>
</person>
<person id="12052000_12052000_10649">
  <attributes>
    <attribute class="java.lang.String" name="hid">12052000_12052000_10649</attribute>
  </attributes>
  <plan selected="yes" score="125.89705617790331">
    <activity type="home" start_time="00:00:00" end_time="08:00:17" link="10688" x="454727.0" y="5741251.0"/>
    <leg mode="drt" trav_time="00:25:32"/>
    <activity type="work" start_time="08:25:49" end_time="16:28:02" link="2743" x="454732.0" y="5740269.0"/>
    <leg mode="drt" trav_time="00:25:32"/>
    <activity type="home" start_time="16:53:34" end_time="24:00:00" link="10688" x="454727.0" y="5741251.0"/>
  </plan>
</person>
<person id="12052000_12052000_10659">
  <attributes>
    <attribute class="java.lang.String" name="hid">12052000_12052000_10659</attribute>
  </attributes>
  <plan selected="yes" score="125.0494775597923">
    <activity type="home" start_time="00:00:00" end_time="06:44:44" link="6382" x="454766.0" y="5732053.0"/>
    <leg mode="drt" trav_time="00:00:00"/>
    <activity type="work" start_time="06:44:44" end_time="15:27:20" link="4497" x="453769.0" y="5733256.0"/>
    <leg mode="drt" trav_time="00:00:00"/>
    <activity type="home" start_time="15:27:20" end_time="24:00:00" link="6382" x="454766.0" y="5732053.0"/>
  </plan>
</person>
<person id="12052000_12052000_10679">
  <attributes>
    <attribute class="java.lang.String" name="hid">12052000_12052000_10679</attribute>
  </attributes>
  <plan selected="yes" score="109.19191843138745">
    <activity type="home" start_time="00:00:00" end_time="07:46:22" link="2374" x="452622.0" y="5739174.0"/>
    <leg mode="drt" trav_time="00:00:00"/>
    <activity type="work" start_time="07:46:22" end_time="15:00:55" link="9431" x="456513.0" y="5728480.0"/>
    <leg mode="drt" trav_time="00:00:00"/>
    <activity type="home" start_time="15:00:55" end_time="24:00:00" link="2374" x="452622.0" y="5739174.0"/>
  </plan>
</person>
<person id="12052000_12052000_10684">
  <attributes>
    <attribute class="java.lang.String" name="hid">12052000_12052000_10684</attribute>
  </attributes>
  <plan selected="yes" score="119.27392152122637">
    <activity type="home" start_time="00:00:00" end_time="08:01:46" link="702" x="453853.0" y="5732587.0"/>
    <leg mode="drt" trav_time="00:07:21"/>
    <activity type="work" start_time="08:09:07" end_time="08:51:18" link="1292" x="453875.0" y="5732305.0"/>
    <leg mode="drt" trav_time="00:00:00"/>
    <activity type="work" start_time="08:51:18" end_time="15:40:11" link="3248" x="453681.0" y="5734148.0"/>
    <leg mode="drt" trav_time="00:00:00"/>
    <activity type="work" start_time="15:40:11" end_time="15:27:57" link="1292" x="453875.0" y="5732305.0"/>
    <leg mode="drt" trav_time="00:07:21"/>